module tape;

clock {
	starttime '2000-01-01 0:00:00';
	stoptime '2000-01-01 0:00:01';
};

#set suppress_repeat_messages=0;


// module powerflow {
	// solver_method FBS;
	// default_maximum_voltage_error 1e-12;
	// line_capacitance TRUE;
// };



module powerflow {
	solver_method NR;
	NR_iteration_limit 100;
	line_capacitance TRUE;
};



object voltdump {
	filename vdump29.csv;
	mode polar;
};

object currdump {
	filename cdump29.csv;
	mode polar;
};

object node {
	name nbus1001;
	phases ABCN;
	nominal_voltage 7967.433714816836;
};

object node {
	name nbus1002;
	phases ABCN;
	nominal_voltage 7967.433714816836;
};

object node {
	name nbus1003;
	phases ABCN;
	nominal_voltage 7967.433714816836;
};

object node {
	name nbus1004;
	phases ABCN;
	nominal_voltage 7967.433714816836;
};

object node {
	name nbus1005;
	phases ABCN;
	nominal_voltage 7967.433714816836;
};

object node {
	name nbus1006;
	phases ABCN;
	nominal_voltage 7967.433714816836;
};

object node {
	name nbus1007;
	phases ABN;
	nominal_voltage 7967.433714816836;
};

object node {
	name nbus1008;
	phases ABCN;
	nominal_voltage 7967.433714816836;
};

object node {
	name nbus1009;
	phases ABCN;
	nominal_voltage 7967.433714816836;
};

object node {
	name nbus1010;
	phases ABCN;
	nominal_voltage 7967.433714816836;
};

object node {
	name nbus1011;
	phases ABCN;
	nominal_voltage 7967.433714816836;
};

object node {
	name nbus1012;
	phases ABCN;
	nominal_voltage 7967.433714816836;
};

object node {
	name nbus1013;
	phases ABCN;
	nominal_voltage 7967.433714816836;
};

object node {
	name nbus1014;
	phases BN;
	nominal_voltage 7967.433714816836;
};

object node {
	name nbus1015;
	phases BN;
	nominal_voltage 7967.433714816836;
};

object node {
	name nbus1016;
	phases CN;
	nominal_voltage 7967.433714816836;
};

object node {
	name nbus1017;
	phases CN;
	nominal_voltage 7967.433714816836;
};

object node {
	name nbus2001;
	phases ABCN;
	nominal_voltage 7967.433714816836;
};

object node {
	name nbus2002;
	phases ABCN;
	nominal_voltage 7967.433714816836;
};

object node {
	name nbus2003;
	phases ABCN;
	nominal_voltage 7967.433714816836;
};

object node {
	name nbus2004;
	phases ABCN;
	nominal_voltage 7967.433714816836;
};

object node {
	name nbus2005;
	phases ABCN;
	nominal_voltage 7967.433714816836;
};

object node {
	name nbus2006;
	phases ABCN;
	nominal_voltage 7967.433714816836;
};

object node {
	name nbus2007;
	phases AN;
	nominal_voltage 7967.433714816836;
};

object node {
	name nbus2008;
	phases AN;
	nominal_voltage 7967.433714816836;
};

object node {
	name nbus2009;
	phases AN;
	nominal_voltage 7967.433714816836;
};

object node {
	name nbus2010;
	phases ABCN;
	nominal_voltage 7967.433714816836;
};

object node {
	name nbus2011;
	phases ABCN;
	nominal_voltage 7967.433714816836;
};

object node {
	name nbus2012;
	phases ABCN;
	nominal_voltage 7967.433714816836;
};

object node {
	name nbus2013;
	phases ABCN;
	nominal_voltage 7967.433714816836;
};

object node {
	name nbus2014;
	phases ABCN;
	nominal_voltage 7967.433714816836;
};

object node {
	name nbus2015;
	phases BN;
	nominal_voltage 7967.433714816836;
};

object node {
	name nbus2016;
	phases ABCN;
	nominal_voltage 7967.433714816836;
};

object node {
	name nbus2017;
	phases ABCN;
	nominal_voltage 7967.433714816836;
};

object node {
	name nbus2018;
	phases ABCN;
	nominal_voltage 7967.433714816836;
};

object node {
	name nbus2019;
	phases ABCN;
	nominal_voltage 7967.433714816836;
};

object node {
	name nbus2020;
	phases BN;
	nominal_voltage 7967.433714816836;
};

object node {
	name nbus2021;
	phases ABCN;
	nominal_voltage 7967.433714816836;
};

object node {
	name nbus2022;
	phases CN;
	nominal_voltage 7967.433714816836;
};

object node {
	name nbus2023;
	phases CN;
	nominal_voltage 7967.433714816836;
};

object node {
	name nbus2024;
	phases CN;
	nominal_voltage 7967.433714816836;
};

object node {
	name nbus2025;
	phases CN;
	nominal_voltage 7967.433714816836;
};

object node {
	name nbus2026;
	phases ABCN;
	nominal_voltage 7967.433714816836;
};

object node {
	name nbus2027;
	phases ABCN;
	nominal_voltage 7967.433714816836;
};

object node {
	name nbus2028;
	phases ABCN;
	nominal_voltage 7967.433714816836;
};

object node {
	name nbus2029;
	phases ABCN;
	nominal_voltage 7967.433714816836;
};

object node {
	name nbus2030;
	phases ABCN;
	nominal_voltage 7967.433714816836;
};

object node {
	name nbus2031;
	phases ABCN;
	nominal_voltage 7967.433714816836;
};

object node {
	name nbus2032;
	phases ABCN;
	nominal_voltage 7967.433714816836;
};

object node {
	name nbus2033;
	phases ABCN;
	nominal_voltage 7967.433714816836;
};

object node {
	name nbus2034;
	phases ABCN;
	nominal_voltage 7967.433714816836;
};

object node {
	name nbus2035;
	phases ABCN;
	nominal_voltage 7967.433714816836;
};

object node {
	name nbus2036;
	phases ABCN;
	nominal_voltage 7967.433714816836;
};

object node {
	name nbus2037;
	phases ABCN;
	nominal_voltage 7967.433714816836;
};

object node {
	name nbus2038;
	phases ABCN;
	nominal_voltage 7967.433714816836;
};

object node {
	name nbus2039;
	phases ABCN;
	nominal_voltage 7967.433714816836;
};

object node {
	name nbus2040;
	phases ABCN;
	nominal_voltage 7967.433714816836;
};

object node {
	name nbus2041;
	phases ABCN;
	nominal_voltage 7967.433714816836;
};

object node {
	name nbus2042;
	phases ABCN;
	nominal_voltage 7967.433714816836;
};

object node {
	name nbus2043;
	phases ABCN;
	nominal_voltage 7967.433714816836;
};

object node {
	name nbus2044;
	phases ABCN;
	nominal_voltage 7967.433714816836;
};

object node {
	name nbus2045;
	phases BN;
	nominal_voltage 7967.433714816836;
};

object node {
	name nbus2046;
	phases BN;
	nominal_voltage 7967.433714816836;
};

object node {
	name nbus2047;
	phases BN;
	nominal_voltage 7967.433714816836;
};

object node {
	name nbus2048;
	phases BN;
	nominal_voltage 7967.433714816836;
};

object node {
	name nbus2049;
	phases ABCN;
	nominal_voltage 7967.433714816836;
};

object node {
	name nbus2050;
	phases ABCN;
	nominal_voltage 7967.433714816836;
};

object node {
	name nbus2051;
	phases ABCN;
	nominal_voltage 7967.433714816836;
};

object node {
	name nbus2052;
	phases ABCN;
	nominal_voltage 7967.433714816836;
};

object node {
	name nbus2053;
	phases ABCN;
	nominal_voltage 7967.433714816836;
};

object node {
	name nbus2054;
	phases ABCN;
	nominal_voltage 7967.433714816836;
};

object node {
	name nbus2055;
	phases ABCN;
	nominal_voltage 7967.433714816836;
};

object node {
	name nbus2056;
	phases ABCN;
	nominal_voltage 7967.433714816836;
};

object node {
	name nbus2057;
	phases ABCN;
	nominal_voltage 7967.433714816836;
};

object node {
	name nbus2058;
	phases ABCN;
	nominal_voltage 7967.433714816836;
};

object node {
	name nbus2059;
	phases ABCN;
	nominal_voltage 7967.433714816836;
};

object node {
	name nbus2060;
	phases ABCN;
	nominal_voltage 7967.433714816836;
};

object node {
	name nbus3001;
	phases ABCN;
	nominal_voltage 7967.433714816836;
};

object node {
	name nbus3003;
	phases ABCN;
	nominal_voltage 7967.433714816836;
};

object node {
	name nbus3002;
	phases ABCN;
	nominal_voltage 7967.433714816836;
};

object node {
	name nbus3004;
	phases ABCN;
	nominal_voltage 7967.433714816836;
};

object node {
	name nbus3005;
	phases ABCN;
	nominal_voltage 7967.433714816836;
};

object node {
	name nbus3006;
	phases ABCN;
	nominal_voltage 7967.433714816836;
};

object node {
	name nbus3007;
	phases ABCN;
	nominal_voltage 7967.433714816836;
};

object node {
	name nbus3008;
	phases ABCN;
	nominal_voltage 7967.433714816836;
};

object node {
	name nbus3009;
	phases AN;
	nominal_voltage 7967.433714816836;
};

object node {
	name nbus3010;
	phases AN;
	nominal_voltage 7967.433714816836;
};

object node {
	name nbus3011;
	phases AN;
	nominal_voltage 7967.433714816836;
};

object node {
	name nbus3012;
	phases AN;
	nominal_voltage 7967.433714816836;
};

object node {
	name nbus3013;
	phases BN;
	nominal_voltage 7967.433714816836;
};

object node {
	name nbus3014;
	phases BN;
	nominal_voltage 7967.433714816836;
};

object node {
	name nbus3015;
	phases ABCN;
	nominal_voltage 7967.433714816836;
};

object node {
	name nbus3016;
	phases BN;
	nominal_voltage 7967.433714816836;
};

object node {
	name nbus3017;
	phases BN;
	nominal_voltage 7967.433714816836;
};

object node {
	name nbus3018;
	phases CN;
	nominal_voltage 7967.433714816836;
};

object node {
	name nbus3019;
	phases CN;
	nominal_voltage 7967.433714816836;
};

object node {
	name nbus3020;
	phases CN;
	nominal_voltage 7967.433714816836;
};

object node {
	name nbus3021;
	phases CN;
	nominal_voltage 7967.433714816836;
};

object node {
	name nbus3022;
	phases ABCN;
	nominal_voltage 7967.433714816836;
};

object node {
	name nbus3023;
	phases AN;
	nominal_voltage 7967.433714816836;
};

object node {
	name nbus3024;
	phases AN;
	nominal_voltage 7967.433714816836;
};

object node {
	name nbus3025;
	phases AN;
	nominal_voltage 7967.433714816836;
};

object node {
	name nbus3026;
	phases AN;
	nominal_voltage 7967.433714816836;
};

object node {
	name nbus3027;
	phases AN;
	nominal_voltage 7967.433714816836;
};

object node {
	name nbus3028;
	phases AN;
	nominal_voltage 7967.433714816836;
};

object node {
	name nbus3029;
	phases AN;
	nominal_voltage 7967.433714816836;
};

object node {
	name nbus3030;
	phases ABCN;
	nominal_voltage 7967.433714816836;
};

object node {
	name nbus3035;
	phases ABCN;
	nominal_voltage 7967.433714816836;
};

object node {
	name nbus3036;
	phases ABCN;
	nominal_voltage 7967.433714816836;
};

object node {
	name nbus3037;
	phases ABCN;
	nominal_voltage 7967.433714816836;
};

object node {
	name nbus3038;
	phases ABCN;
	nominal_voltage 7967.433714816836;
};

object node {
	name nbus3039;
	phases ABCN;
	nominal_voltage 7967.433714816836;
};

object node {
	name nbus3053;
	phases ABCN;
	nominal_voltage 7967.433714816836;
};

object node {
	name nbus3054;
	phases ABCN;
	nominal_voltage 7967.433714816836;
};

object node {
	name nbus3055;
	phases BN;
	nominal_voltage 7967.433714816836;
};

object node {
	name nbus3056;
	phases BN;
	nominal_voltage 7967.433714816836;
};

object node {
	name nbus3057;
	phases BN;
	nominal_voltage 7967.433714816836;
};

object node {
	name nbus3058;
	phases BN;
	nominal_voltage 7967.433714816836;
};

object node {
	name nbus3059;
	phases BN;
	nominal_voltage 7967.433714816836;
};

object node {
	name nbus3060;
	phases BN;
	nominal_voltage 7967.433714816836;
};

object node {
	name nbus3061;
	phases BN;
	nominal_voltage 7967.433714816836;
};

object node {
	name nbus3062;
	phases BN;
	nominal_voltage 7967.433714816836;
};

object node {
	name nbus3063;
	phases BN;
	nominal_voltage 7967.433714816836;
};

object node {
	name nbus3064;
	phases BN;
	nominal_voltage 7967.433714816836;
};

object node {
	name nbus3065;
	phases BN;
	nominal_voltage 7967.433714816836;
};

object node {
	name nbus3066;
	phases BN;
	nominal_voltage 7967.433714816836;
};

object node {
	name nbus3067;
	phases BN;
	nominal_voltage 7967.433714816836;
};

object node {
	name nbus3040;
	phases ABCN;
	nominal_voltage 7967.433714816836;
};

object node {
	name nbus3044;
	phases CN;
	nominal_voltage 7967.433714816836;
};

object node {
	name nbus3045;
	phases CN;
	nominal_voltage 7967.433714816836;
};

object node {
	name nbus3041;
	phases CN;
	nominal_voltage 7967.433714816836;
};

object node {
	name nbus3042;
	phases CN;
	nominal_voltage 7967.433714816836;
};

object node {
	name nbus3043;
	phases CN;
	nominal_voltage 7967.433714816836;
};

object node {
	name nbus3046;
	phases ABCN;
	nominal_voltage 7967.433714816836;
};

object node {
	name nbus3047;
	phases ABCN;
	nominal_voltage 7967.433714816836;
};

object node {
	name nbus3048;
	phases ABCN;
	nominal_voltage 7967.433714816836;
};

object node {
	name nbus3049;
	phases ABCN;
	nominal_voltage 7967.433714816836;
};

object node {
	name nbus3050;
	phases ABCN;
	nominal_voltage 7967.433714816836;
};

object node {
	name nbus3051;
	phases ABCN;
	nominal_voltage 7967.433714816836;
};

object node {
	name nbus3052;
	phases ABCN;
	nominal_voltage 7967.433714816836;
};

object node {
	name nbus3031;
	phases ABCN;
	nominal_voltage 7967.433714816836;
};

object node {
	name nbus3032;
	phases ABCN;
	nominal_voltage 7967.433714816836;
};

object node {
	name nbus3033;
	phases ABCN;
	nominal_voltage 7967.433714816836;
};

object node {
	name nbus3034;
	phases ABCN;
	nominal_voltage 7967.433714816836;
};

object node {
	name nbus3068;
	phases ABCN;
	nominal_voltage 7967.433714816836;
};

object node {
	name nbus3069;
	phases ABCN;
	nominal_voltage 7967.433714816836;
};

object node {
	name nbus3070;
	phases ABCN;
	nominal_voltage 7967.433714816836;
};

object node {
	name nbus3071;
	phases ABCN;
	nominal_voltage 7967.433714816836;
};

object node {
	name nbus3072;
	phases ABCN;
	nominal_voltage 7967.433714816836;
};

object node {
	name nbus3073;
	phases ABCN;
	nominal_voltage 7967.433714816836;
};

object node {
	name nbus3074;
	phases ABCN;
	nominal_voltage 7967.433714816836;
};

object node {
	name nbus3075;
	phases ABCN;
	nominal_voltage 7967.433714816836;
};

object node {
	name nbus3076;
	phases ABCN;
	nominal_voltage 7967.433714816836;
};

object node {
	name nbus3077;
	phases ABCN;
	nominal_voltage 7967.433714816836;
};

object node {
	name nbus3078;
	phases ABCN;
	nominal_voltage 7967.433714816836;
};

object node {
	name nbus3079;
	phases ABCN;
	nominal_voltage 7967.433714816836;
};

object node {
	name nbus3080;
	phases ABCN;
	nominal_voltage 7967.433714816836;
};

object node {
	name nbus3081;
	phases ABCN;
	nominal_voltage 7967.433714816836;
};

object node {
	name nbus3082;
	phases ABCN;
	nominal_voltage 7967.433714816836;
};

object node {
	name nbus3083;
	phases AN;
	nominal_voltage 7967.433714816836;
};

object node {
	name nbus3084;
	phases AN;
	nominal_voltage 7967.433714816836;
};

object node {
	name nbus3085;
	phases AN;
	nominal_voltage 7967.433714816836;
};

object node {
	name nbus3086;
	phases AN;
	nominal_voltage 7967.433714816836;
};

object node {
	name nbus3087;
	phases AN;
	nominal_voltage 7967.433714816836;
};

object node {
	name nbus3088;
	phases AN;
	nominal_voltage 7967.433714816836;
};

object node {
	name nbus3089;
	phases AN;
	nominal_voltage 7967.433714816836;
};

object node {
	name nbus3090;
	phases AN;
	nominal_voltage 7967.433714816836;
};

object node {
	name nbus3091;
	phases AN;
	nominal_voltage 7967.433714816836;
};

object node {
	name nbus3092;
	phases ABCN;
	nominal_voltage 7967.433714816836;
};

object node {
	name nbus3093;
	phases AN;
	nominal_voltage 7967.433714816836;
};

object node {
	name nbus3094;
	phases AN;
	nominal_voltage 7967.433714816836;
};

object node {
	name nbus3095;
	phases AN;
	nominal_voltage 7967.433714816836;
};

object node {
	name nbus3096;
	phases AN;
	nominal_voltage 7967.433714816836;
};

object node {
	name nbus3097;
	phases AN;
	nominal_voltage 7967.433714816836;
};

object node {
	name nbus3098;
	phases BN;
	nominal_voltage 7967.433714816836;
};

object node {
	name nbus3099;
	phases BN;
	nominal_voltage 7967.433714816836;
};

object node {
	name nbus3100;
	phases ABCN;
	nominal_voltage 7967.433714816836;
};

object node {
	name nbus3101;
	phases CN;
	nominal_voltage 7967.433714816836;
};

object node {
	name nbus3102;
	phases CN;
	nominal_voltage 7967.433714816836;
};

object node {
	name nbus3103;
	phases CN;
	nominal_voltage 7967.433714816836;
};

object node {
	name nbus3104;
	phases CN;
	nominal_voltage 7967.433714816836;
};

object node {
	name nbus3105;
	phases CN;
	nominal_voltage 7967.433714816836;
};

object node {
	name nbus3106;
	phases CN;
	nominal_voltage 7967.433714816836;
};

object node {
	name nbus3107;
	phases ABCN;
	nominal_voltage 7967.433714816836;
};

object node {
	name nbus3108;
	phases AN;
	nominal_voltage 7967.433714816836;
};

object node {
	name nbus3109;
	phases AN;
	nominal_voltage 7967.433714816836;
};

object node {
	name nbus3110;
	phases AN;
	nominal_voltage 7967.433714816836;
};

object node {
	name nbus3111;
	phases AN;
	nominal_voltage 7967.433714816836;
};

object node {
	name nbus3112;
	phases AN;
	nominal_voltage 7967.433714816836;
};

object node {
	name nbus3113;
	phases BN;
	nominal_voltage 7967.433714816836;
};

object node {
	name nbus3114;
	phases BN;
	nominal_voltage 7967.433714816836;
};

object node {
	name nbus3115;
	phases BN;
	nominal_voltage 7967.433714816836;
};

object node {
	name nbus3116;
	phases BN;
	nominal_voltage 7967.433714816836;
};

object node {
	name nbus3117;
	phases BN;
	nominal_voltage 7967.433714816836;
};

object node {
	name nbus3118;
	phases ABCN;
	nominal_voltage 7967.433714816836;
};

object node {
	name nbus3119;
	phases BN;
	nominal_voltage 7967.433714816836;
};

object node {
	name nbus3120;
	phases BN;
	nominal_voltage 7967.433714816836;
};

object node {
	name nbus3121;
	phases BN;
	nominal_voltage 7967.433714816836;
};

object node {
	name nbus3122;
	phases BN;
	nominal_voltage 7967.433714816836;
};

object node {
	name nbus3123;
	phases BN;
	nominal_voltage 7967.433714816836;
};

object node {
	name nbus3124;
	phases BN;
	nominal_voltage 7967.433714816836;
};

object node {
	name nbus3125;
	phases BN;
	nominal_voltage 7967.433714816836;
};

object node {
	name nbus3126;
	phases BN;
	nominal_voltage 7967.433714816836;
};

object node {
	name nbus3127;
	phases BN;
	nominal_voltage 7967.433714816836;
};

object node {
	name nbus3128;
	phases BN;
	nominal_voltage 7967.433714816836;
};

object node {
	name nbus3129;
	phases BN;
	nominal_voltage 7967.433714816836;
};

object node {
	name nbus3130;
	phases BN;
	nominal_voltage 7967.433714816836;
};

object node {
	name nbus3131;
	phases BN;
	nominal_voltage 7967.433714816836;
};

object node {
	name nbus3132;
	phases AN;
	nominal_voltage 7967.433714816836;
};

object node {
	name nbus3133;
	phases AN;
	nominal_voltage 7967.433714816836;
};

object node {
	name nbus3134;
	phases AN;
	nominal_voltage 7967.433714816836;
};

object node {
	name nbus3135;
	phases AN;
	nominal_voltage 7967.433714816836;
};

object node {
	name nbus3136;
	phases AN;
	nominal_voltage 7967.433714816836;
};

object node {
	name nbus3137;
	phases AN;
	nominal_voltage 7967.433714816836;
};

object node {
	name nbus3138;
	phases AN;
	nominal_voltage 7967.433714816836;
};

object node {
	name nbus3139;
	phases AN;
	nominal_voltage 7967.433714816836;
};

object node {
	name nbus3140;
	phases CN;
	nominal_voltage 7967.433714816836;
};

object node {
	name nbus3141;
	phases CN;
	nominal_voltage 7967.433714816836;
};

object node {
	name nbus3142;
	phases CN;
	nominal_voltage 7967.433714816836;
};

object node {
	name nbus3143;
	phases CN;
	nominal_voltage 7967.433714816836;
};

object node {
	name nbus3148;
	phases CN;
	nominal_voltage 7967.433714816836;
};

object node {
	name nbus3149;
	phases CN;
	nominal_voltage 7967.433714816836;
};

object node {
	name nbus3150;
	phases CN;
	nominal_voltage 7967.433714816836;
};

object node {
	name nbus3151;
	phases CN;
	nominal_voltage 7967.433714816836;
};

object node {
	name nbus3152;
	phases CN;
	nominal_voltage 7967.433714816836;
};

object node {
	name nbus3153;
	phases CN;
	nominal_voltage 7967.433714816836;
};

object node {
	name nbus3154;
	phases CN;
	nominal_voltage 7967.433714816836;
};

object node {
	name nbus3155;
	phases CN;
	nominal_voltage 7967.433714816836;
};

object node {
	name nbus3156;
	phases CN;
	nominal_voltage 7967.433714816836;
};

object node {
	name nbus3144;
	phases CN;
	nominal_voltage 7967.433714816836;
};

object node {
	name nbus3145;
	phases CN;
	nominal_voltage 7967.433714816836;
};

object node {
	name nbus3146;
	phases CN;
	nominal_voltage 7967.433714816836;
};

object node {
	name nbus3147;
	phases CN;
	nominal_voltage 7967.433714816836;
};

object node {
	name nbus3157;
	phases CN;
	nominal_voltage 7967.433714816836;
};

object node {
	name nbus3158;
	phases CN;
	nominal_voltage 7967.433714816836;
};

object node {
	name nbus3159;
	phases CN;
	nominal_voltage 7967.433714816836;
};

object node {
	name nbus3160;
	phases CN;
	nominal_voltage 7967.433714816836;
};

object node {
	name nbus3161;
	phases CN;
	nominal_voltage 7967.433714816836;
};

object node {
	name nbus3162;
	phases CN;
	nominal_voltage 7967.433714816836;
};

object node {
	name nbus1;
	phases ABCN;
	nominal_voltage 7967.433714816836;
};


object node {
	name GLMswing;
	phases ABCN;
	bustype SWING;
	nominal_voltage 39837.16857408418;
};

object node {
	name neq_source_bus;
	phases ABCN;
	nominal_voltage 39837.16857408418;
};

object underground_line {
	length 5280;
	configuration line_Vsource;
	name vsource_inpedance;
	from GLMswing;
	to neq_source_bus;
	phases ABC;
};

object node {
	name nbus_xfmr;
	phases ABCN;
	nominal_voltage 7967.433714816836;
};

object node {
	name nt_bus1003_l;
	phases ABCN;
	nominal_voltage 120;
};

object node {
	name nt_bus1004_l;
	phases ABCN;
	nominal_voltage 120.0;
};

object node {
	name nt_bus1005_l;
	phases ABCN;
	nominal_voltage 120;
};

object node {
	name nt_bus1006_l;
	phases ABD;
	nominal_voltage 120;
};

object node {
	name nt_bus1007_l;
	phases ABD;
	nominal_voltage 120;
};

object node {
	name nt_bus1008_l;
	phases ABCN;
	nominal_voltage 120;
};

object node {
	name nt_bus1009_l;
	phases ABCN;
	nominal_voltage 120;
};

object node {
	name nt_bus1010_l;
	phases ABCN;
	nominal_voltage 120;
};

object triplex_node {
	name nt_bus1011_l;
	phases AS;
	nominal_voltage 120;
};

object triplex_node {
	name nt_bus1012_l;
	phases BS;
	nominal_voltage 120;
};

object node {
	name nt_bus1013_l;
	phases ABCN;
	nominal_voltage 120;
};

object triplex_node {
	name nt_bus1014_l;
	phases BS;
	nominal_voltage 120;
};

object triplex_node {
	name nt_bus1015_l;
	phases BS;
	nominal_voltage 120;
};

object triplex_node {
	name nt_bus1016_l;
	phases CS;
	nominal_voltage 120;
};

object triplex_node {
	name nt_bus1017_l;
	phases CS;
	nominal_voltage 120;
};

object node {
	name nt_bus2002_l;
	phases ABCN;
	nominal_voltage 120;
};

object node {
	name nt_bus2003_l;
	phases ABCN;
	nominal_voltage 120;
};

object node {
	name nt_bus2005_l;
	phases ABCN;
	nominal_voltage 120;
};

object triplex_node {
	name nt_bus2008_l;
	phases AS;
	nominal_voltage 120;
};

object triplex_node {
	name nt_bus2009_l;
	phases AS;
	nominal_voltage 120;
};

object node {
	name nt_bus2010_l;
	phases ABCN;
	nominal_voltage 120;
};

object node {
	name nt_bus2011_l;
	phases ABCN;
	nominal_voltage 120;
};

object triplex_node {
	name nt_bus2014_l;
	phases BS;
	nominal_voltage 120;
};

object triplex_node {
	name nt_bus2015_l;
	phases BS;
	nominal_voltage 120;
};

object triplex_node {
	name nt_bus2016_l;
	phases BS;
	nominal_voltage 120;
};

object triplex_node {
	name nt_bus2017_l;
	phases BS;
	nominal_voltage 120;
};

object triplex_node {
	name nt_bus2018_l;
	phases BS;
	nominal_voltage 120;
};

object triplex_node {
	name nt_bus2020_l;
	phases BS;
	nominal_voltage 120;
};

object triplex_node {
	name nt_bus2022_l;
	phases CS;
	nominal_voltage 120;
};

object triplex_node {
	name nt_bus2023_l;
	phases CS;
	nominal_voltage 120;
};

object triplex_node {
	name nt_bus2024_l;
	phases CS;
	nominal_voltage 120;
};

object triplex_node {
	name nt_bus2025_l;
	phases CS;
	nominal_voltage 120;
};

object triplex_node {
	name nt_bus2028_l;
	phases AS;
	nominal_voltage 120;
};

object node {
	name nt_bus2029_l;
	phases ABCN;
	nominal_voltage 120;
};

object node {
	name nt_bus2030_l;
	phases ABCN;
	nominal_voltage 120;
};

object triplex_node {
	name nt_bus2031_l;
	phases AS;
	nominal_voltage 120;
};

object node {
	name nt_bus2032_l;
	phases ABCN;
	nominal_voltage 120;
};

object node {
	name nt_bus2034_l;
	phases ABCN;
	nominal_voltage 120;
};

object node {
	name nt_bus2035_l;
	phases ABCN;
	nominal_voltage 120;
};

object node {
	name nt_bus2037_l;
	phases ABCN;
	nominal_voltage 120;
};

object node {
	name nt_bus2040_l;
	phases ABCN;
	nominal_voltage 120;
};

object node {
	name nt_bus2041_l;
	phases ABCN;
	nominal_voltage 120;
};

object node {
	name nt_bus2042_l;
	phases ABCN;
	nominal_voltage 120;
};

object node {
	name nt_bus2043_l;
	phases ABCN;
	nominal_voltage 120;
};

object triplex_node {
	name nt_bus2045_l;
	phases BS;
	nominal_voltage 120;
};

object triplex_node {
	name nt_bus2046_l;
	phases BS;
	nominal_voltage 120;
};

object triplex_node {
	name nt_bus2047_l;
	phases BS;
	nominal_voltage 120;
};

object triplex_node {
	name nt_bus2048_l;
	phases BS;
	nominal_voltage 120;
};

object triplex_node {
	name nt_bus2049_l;
	phases CS;
	nominal_voltage 120;
};

object triplex_node {
	name nt_bus2050_l;
	phases CS;
	nominal_voltage 120;
};

object triplex_node {
	name nt_bus2051_l;
	phases CS;
	nominal_voltage 120;
};

object node {
	name nt_bus2052_l;
	phases ABCN;
	nominal_voltage 120;
};

object node {
	name nt_bus2053_l;
	phases ABCN;
	nominal_voltage 120;
};

object triplex_node {
	name nt_bus2054_l;
	phases AS;
	nominal_voltage 120;
};

object triplex_node {
	name nt_bus2055_l;
	phases AS;
	nominal_voltage 120;
};

object triplex_node {
	name nt_bus2056_l;
	phases AS;
	nominal_voltage 120;
};

object node {
	name nt_bus2058_l;
	phases ABCN;
	nominal_voltage 120;
};

object triplex_node {
	name nt_bus2059_l;
	phases BS;
	nominal_voltage 120;
};

object triplex_node {
	name nt_bus2060_l;
	phases BS;
	nominal_voltage 120;
};

object node {
	name nt_bus3002_l;
	phases ABCN;
	nominal_voltage 120;
};

object node {
	name nt_bus3004_l;
	phases ABCN;
	nominal_voltage 120;
};

object node {
	name nt_bus3006_l;
	phases ABCN;
	nominal_voltage 120;
};

object node {
	name nt_bus3007_l;
	phases ABCN;
	nominal_voltage 120;
};

object triplex_node {
	name nt_bus3009_l;
	phases AS;
	nominal_voltage 120;
};

object triplex_node {
	name nt_bus3010_l;
	phases AS;
	nominal_voltage 120;
};

object triplex_node {
	name nt_bus3011_l;
	phases AS;
	nominal_voltage 120;
};

object triplex_node {
	name nt_bus3012_l;
	phases AS;
	nominal_voltage 120;
};

object triplex_node {
	name nt_bus3013_l;
	phases BS;
	nominal_voltage 120;
};

object triplex_node {
	name nt_bus3014_l;
	phases BS;
	nominal_voltage 120;
};

object triplex_node {
	name nt_bus3016_l;
	phases BS;
	nominal_voltage 120;
};

object triplex_node {
	name nt_bus3017_l;
	phases BS;
	nominal_voltage 120;
};

object triplex_node {
	name nt_bus3018_l;
	phases CS;
	nominal_voltage 120;
};

object triplex_node {
	name nt_bus3019_l;
	phases CS;
	nominal_voltage 120;
};

object triplex_node {
	name nt_bus3020_l;
	phases CS;
	nominal_voltage 120;
};

object triplex_node {
	name nt_bus3021_l;
	phases CS;
	nominal_voltage 120;
};

object triplex_node {
	name nt_bus3023_l;
	phases AS;
	nominal_voltage 120;
};

object triplex_node {
	name nt_bus3024_l;
	phases AS;
	nominal_voltage 120;
};

object triplex_node {
	name nt_bus3025_l;
	phases AS;
	nominal_voltage 120;
};

object triplex_node {
	name nt_bus3026_l;
	phases AS;
	nominal_voltage 120;
};

object triplex_node {
	name nt_bus3027_l;
	phases AS;
	nominal_voltage 120;
};

object triplex_node {
	name nt_bus3028_l;
	phases AS;
	nominal_voltage 120;
};

object triplex_node {
	name nt_bus3029_l;
	phases AS;
	nominal_voltage 120;
};

object node {
	name nt_bus3031_l;
	phases ABCN;
	nominal_voltage 120;
};

object node {
	name nt_bus3032_l;
	phases ABCN;
	nominal_voltage 120;
};

object node {
	name nt_bus3033_l;
	phases ABCN;
	nominal_voltage 120;
};

object node {
	name nt_bus3034_l;
	phases ABCN;
	nominal_voltage 120;
};

object node {
	name nt_bus3035_l;
	phases ABCN;
	nominal_voltage 120;
};

object node {
	name nt_bus3036_l;
	phases ABCN;
	nominal_voltage 120;
};

object node {
	name nt_bus3037_l;
	phases ABCN;
	nominal_voltage 120;
};

object node {
	name nt_bus3038_l;
	phases ABCN;
	nominal_voltage 120;
};

object node {
	name nt_bus3039_l;
	phases ABCN;
	nominal_voltage 120;
};

object triplex_node {
	name nt_bus3041_l;
	phases CS;
	nominal_voltage 120;
};

object triplex_node {
	name nt_bus3042_l;
	phases CS;
	nominal_voltage 120;
};

object triplex_node {
	name nt_bus3043_l;
	phases CS;
	nominal_voltage 120;
};

object triplex_node {
	name nt_bus3044_l;
	phases CS;
	nominal_voltage 120;
};

object triplex_node {
	name nt_bus3045_l;
	phases CS;
	nominal_voltage 120;
};

object node {
	name nt_bus3047_l;
	phases ABCN;
	nominal_voltage 120;
};

object node {
	name nt_bus3048_l;
	phases ABCN;
	nominal_voltage 120;
};

object node {
	name nt_bus3049_l;
	phases ABCN;
	nominal_voltage 120;
};

object node {
	name nt_bus3050_l;
	phases ABCN;
	nominal_voltage 120;
};

object node {
	name nt_bus3051_l;
	phases ABCN;
	nominal_voltage 120;
};

object node {
	name nt_bus3052_l;
	phases ABCN;
	nominal_voltage 120;
};

object node {
	name nt_bus3054_l;
	phases ABCN;
	nominal_voltage 120;
};

object triplex_node {
	name nt_bus3056_l;
	phases BS;
	nominal_voltage 120;
};

object triplex_node {
	name nt_bus3057_l;
	phases BS;
	nominal_voltage 120;
};

object triplex_node {
	name nt_bus3058_l;
	phases BS;
	nominal_voltage 120;
};

object triplex_node {
	name nt_bus3059_l;
	phases BS;
	nominal_voltage 120;
};

object triplex_node {
	name nt_bus3060_l;
	phases BS;
	nominal_voltage 120;
};

object triplex_node {
	name nt_bus3061_l;
	phases BS;
	nominal_voltage 120;
};

object triplex_node {
	name nt_bus3062_l;
	phases BS;
	nominal_voltage 120;
};

object triplex_node {
	name nt_bus3063_l;
	phases BS;
	nominal_voltage 120;
};

object triplex_node {
	name nt_bus3064_l;
	phases BS;
	nominal_voltage 120;
};

object triplex_node {
	name nt_bus3065_l;
	phases BS;
	nominal_voltage 120;
};

object triplex_node {
	name nt_bus3066_l;
	phases BS;
	nominal_voltage 120;
};

object triplex_node {
	name nt_bus3067_l;
	phases BS;
	nominal_voltage 120;
};

object node {
	name nt_bus3070_l;
	phases ABCN;
	nominal_voltage 120;
};

object node {
	name nt_bus3071_l;
	phases ABCN;
	nominal_voltage 120;
};

object node {
	name nt_bus3072_l;
	phases ABCN;
	nominal_voltage 120;
};

object node {
	name nt_bus3073_l;
	phases ABCN;
	nominal_voltage 120;
};
